2024_89_CemigReconfigurationCases/1_AlimsCemig/ESR15/ESR15SegmentosMT.dss
new line.SMT_10224936 bus1=BMT169235374.1.2.3,bus2=BMT6398842B.1.2.3,Phases=3,Linecode=CAB208_3_3_3,Length=0.005101000,Units=km
new line.SMT_10224950 bus1=BMT6398835B.1.2.3,bus2=BMT98855815.1.2.3,Phases=3,Linecode=CAB208_3_3_3,Length=0.006085000,Units=km
new line.SMT_10224957 bus1=BMT6398842B.1.2.3,bus2=BMT169235375.1.2.3,Phases=3,Linecode=CAB208_3_3_3,Length=0.022812000,Units=km
new line.SMT_11298694 bus1=BMT137030371.3,bus2=BMT137030378.3,Phases=1,Linecode=CAB202_3_1_1,Length=0.042734000,Units=km
new line.SMT_11645565 bus1=BMT111476542.3,bus2=BMT111476549.3,Phases=1,Linecode=CAB202_3_1_1,Length=0.011004000,Units=km
new line.SMT_11645985 bus1=BMT175451455.3,bus2=BMT175451456.3,Phases=1,Linecode=CAB202_3_1_1,Length=0.018255000,Units=km
new line.SMT_11646244 bus1=BMT3910922B.1.2.3,bus2=BMT7843565B.1.2.3,Phases=3,Linecode=CABA08_3_3_3,Length=0.039976000,Units=km
new line.SMT_11646251 bus1=BMT3910929B.1.2.3,bus2=BMT7843565B.1.2.3,Phases=3,Linecode=CABA08_3_3_3,Length=0.051329000,Units=km
new line.SMT_11646279 bus1=BMT3910929B.1.2.3,bus2=BMT7843593B.1.2.3,Phases=3,Linecode=CABA08_3_3_3,Length=0.059836000,Units=km
new line.SMT_11646286 bus1=BMT3910936B.1.2.3,bus2=BMT7843593B.1.2.3,Phases=3,Linecode=CABA08_3_3_3,Length=0.051056000,Units=km
new line.SMT_11646321 bus1=BMT3910957B.1.2.3,bus2=BMT7843635B.1.2.3,Phases=3,Linecode=CABA08_3_3_3,Length=0.050176000,Units=km
new line.SMT_11646328 bus1=BMT175451461.1.2.3,bus2=BMT7843635B.1.2.3,Phases=3,Linecode=CABA08_3_3_3,Length=0.020107000,Units=km
new line.SMT_11646342 bus1=BMT3910936B.1.2.3,bus2=BMT3910957B.1.2.3,Phases=3,Linecode=CABA08_3_3_3,Length=0.046663000,Units=km
new line.SMT_11646559 bus1=BMT175451448.1.2.3,bus2=BMT111476458.1.2.3,Phases=3,Linecode=CABA08_3_3_3,Length=0.036137000,Units=km
new line.SMT_11646573 bus1=BMT111476458.1.2.3,bus2=BMT7842809B.1.2.3,Phases=3,Linecode=CABA08_3_3_3,Length=0.032660000,Units=km
new line.SMT_11646587 bus1=BMT7842809B.1.2.3,bus2=BMT7842844B.1.2.3,Phases=3,Linecode=CABA08_3_3_3,Length=0.039064000,Units=km
new line.SMT_11646608 bus1=BMT7842844B.1.2.3,bus2=BMT175451449.1.2.3,Phases=3,Linecode=CABA08_3_3_3,Length=0.032461000,Units=km
new line.SMT_11646629 bus1=BMT175451449.1.2.3,bus2=BMT3530465B.1.2.3,Phases=3,Linecode=CABA08_3_3_3,Length=0.032213000,Units=km
new line.SMT_11646643 bus1=BMT3530465B.1.2.3,bus2=BMT7843061B.1.2.3,Phases=3,Linecode=CABA08_3_3_3,Length=0.040026000,Units=km
new line.SMT_11646650 bus1=BMT7843061B.1.2.3,bus2=BMT7843054B.1.2.3,Phases=3,Linecode=CABA08_3_3_3,Length=0.039825000,Units=km
new line.SMT_11646706 bus1=BMT7843054B.1.2.3,bus2=BMT175451450.1.2.3,Phases=3,Linecode=CABA08_3_3_3,Length=0.039064000,Units=km
new line.SMT_11646727 bus1=BMT3513854B.1.2.3,bus2=BMT175451451.1.2.3,Phases=3,Linecode=CABA08_3_3_3,Length=0.020525000,Units=km
new line.SMT_11646734 bus1=BMT175451451.1.2.3,bus2=BMT7843222B.1.2.3,Phases=3,Linecode=CABA08_3_3_3,Length=0.033849000,Units=km
new line.SMT_11646741 bus1=BMT7843222B.1.2.3,bus2=BMT7843229B.1.2.3,Phases=3,Linecode=CABA08_3_3_3,Length=0.033026000,Units=km
new line.SMT_11646755 bus1=BMT7843229B.1.2.3,bus2=BMT7843236B.1.2.3,Phases=3,Linecode=CABA08_3_3_3,Length=0.032260000,Units=km
new line.SMT_11646762 bus1=BMT7843236B.1.2.3,bus2=BMT7843250B.1.2.3,Phases=3,Linecode=CABA08_3_3_3,Length=0.032026000,Units=km
new line.SMT_11646769 bus1=BMT7843250B.1.2.3,bus2=BMT7843257B.1.2.3,Phases=3,Linecode=CABA08_3_3_3,Length=0.030010000,Units=km
new line.SMT_11646776 bus1=BMT7843257B.1.2.3,bus2=BMT175451452.1.2.3,Phases=3,Linecode=CABA08_3_3_3,Length=0.031026000,Units=km
new line.SMT_11646783 bus1=BMT175451451.3,bus2=BMT175451453.3,Phases=1,Linecode=CABA08_3_1_1,Length=0.056098000,Units=km
new line.SMT_11646804 bus1=BMT175451452.1.2.3,bus2=BMT7843292B.1.2.3,Phases=3,Linecode=CAB907_4_3_3,Length=0.042652000,Units=km
new line.SMT_11646825 bus1=BMT7843292B.1.2.3,bus2=BMT7843299B.1.2.3,Phases=3,Linecode=CAB907_4_3_3,Length=0.042652000,Units=km
new line.SMT_11646846 bus1=BMT7843299B.1.2.3,bus2=BMT7843306B.1.2.3,Phases=3,Linecode=CAB907_4_3_3,Length=0.042026000,Units=km
new line.SMT_11646853 bus1=BMT7843306B.1.2.3,bus2=BMT7843313B.1.2.3,Phases=3,Linecode=CAB907_4_3_3,Length=0.040621000,Units=km
new line.SMT_11646867 bus1=BMT7843313B.1.2.3,bus2=BMT7843320B.1.2.3,Phases=3,Linecode=CAB907_4_3_3,Length=0.039217000,Units=km
new line.SMT_11646874 bus1=BMT7843320B.1.2.3,bus2=BMT7843327B.1.2.3,Phases=3,Linecode=CAB907_4_3_3,Length=0.034217000,Units=km
new line.SMT_11646881 bus1=BMT7843327B.1.2.3,bus2=BMT175451454.1.2.3,Phases=3,Linecode=CAB907_4_3_3,Length=0.035012000,Units=km
new line.SMT_11646888 bus1=BMT175451454.1.2.3,bus2=BMT7843362B.1.2.3,Phases=3,Linecode=CABA08_3_3_3,Length=0.031395000,Units=km
new line.SMT_11646895 bus1=BMT7843362B.1.2.3,bus2=BMT7843355B.1.2.3,Phases=3,Linecode=CABA08_3_3_3,Length=0.033433000,Units=km
new line.SMT_11646902 bus1=BMT7843355B.1.2.3,bus2=BMT7843348B.1.2.3,Phases=3,Linecode=CABA08_3_3_3,Length=0.035367000,Units=km
new line.SMT_11646923 bus1=BMT7843348B.1.2.3,bus2=BMT175451455.1.2.3,Phases=3,Linecode=CABA08_3_3_3,Length=0.031633000,Units=km
new line.SMT_11646930 bus1=BMT175451455.1.2.3,bus2=BMT7843411B.1.2.3,Phases=3,Linecode=CABA08_3_3_3,Length=0.034246000,Units=km
new line.SMT_11646937 bus1=BMT7843411B.1.2.3,bus2=BMT7843418B.1.2.3,Phases=3,Linecode=CABA08_3_3_3,Length=0.036509000,Units=km
new line.SMT_11646944 bus1=BMT7843418B.1.2.3,bus2=BMT7843425B.1.2.3,Phases=3,Linecode=CABA08_3_3_3,Length=0.036151000,Units=km
new line.SMT_11646958 bus1=BMT7843425B.1.2.3,bus2=BMT7843432B.1.2.3,Phases=3,Linecode=CABA08_3_3_3,Length=0.035140000,Units=km
new line.SMT_11646965 bus1=BMT7843432B.1.2.3,bus2=BMT7843446B.1.2.3,Phases=3,Linecode=CABA08_3_3_3,Length=0.034997000,Units=km
new line.SMT_11646972 bus1=BMT7843446B.1.2.3,bus2=BMT7843453B.1.2.3,Phases=3,Linecode=CABA08_3_3_3,Length=0.042216000,Units=km
new line.SMT_11646979 bus1=BMT7843453B.1.2.3,bus2=BMT7843460B.1.2.3,Phases=3,Linecode=CABA08_3_3_3,Length=0.039064000,Units=km
new line.SMT_11646986 bus1=BMT7843460B.1.2.3,bus2=BMT175451457.1.2.3,Phases=3,Linecode=CABA08_3_3_3,Length=0.036137000,Units=km
new line.SMT_11647259 bus1=BMT7843726B.1.2.3,bus2=BMT7844272B.1.2.3,Phases=3,Linecode=CABA08_3_3_3,Length=0.021641000,Units=km
new line.SMT_11647266 bus1=BMT7844272B.1.2.3,bus2=BMT7844279B.1.2.3,Phases=3,Linecode=CABA08_3_3_3,Length=0.032213000,Units=km
new line.SMT_11647301 bus1=BMT7844279B.1.2.3,bus2=BMT7844293B.1.2.3,Phases=3,Linecode=CABA08_3_3_3,Length=0.025816000,Units=km
new line.SMT_11647308 bus1=BMT7844293B.1.2.3,bus2=BMT7844300B.1.2.3,Phases=3,Linecode=CABA08_3_3_3,Length=0.009223000,Units=km
new line.SMT_11647392 bus1=BMT7844300B.1.2.3,bus2=BMT7844398B.1.2.3,Phases=3,Linecode=CABA08_3_3_3,Length=0.012654000,Units=km
new line.SMT_11647399 bus1=BMT7844398B.1.2.3,bus2=BMT7844405B.1.2.3,Phases=3,Linecode=CABA08_3_3_3,Length=0.025562000,Units=km
new line.SMT_11647406 bus1=BMT7844405B.1.2.3,bus2=BMT7844412B.1.2.3,Phases=3,Linecode=CABA08_3_3_3,Length=0.036137000,Units=km
new line.SMT_11647413 bus1=BMT7844412B.1.2.3,bus2=BMT7844419B.1.2.3,Phases=3,Linecode=CABA08_3_3_3,Length=0.048400000,Units=km
new line.SMT_11647420 bus1=BMT7844419B.1.2.3,bus2=BMT7844426B.1.2.3,Phases=3,Linecode=CABA08_3_3_3,Length=0.028329000,Units=km
new line.SMT_11647427 bus1=BMT7844426B.1.2.3,bus2=BMT7844433B.1.2.3,Phases=3,Linecode=CABA08_3_3_3,Length=0.034143000,Units=km
new line.SMT_11647434 bus1=BMT7844433B.1.2.3,bus2=BMT7844440B.1.2.3,Phases=3,Linecode=CABA08_3_3_3,Length=0.045710000,Units=km
new line.SMT_11647441 bus1=BMT7844440B.1.2.3,bus2=BMT7844447B.1.2.3,Phases=3,Linecode=CABA08_3_3_3,Length=0.045710000,Units=km
new line.SMT_11647854 bus1=BMT7844447B.1.2.3,bus2=BMT7844454B.1.2.3,Phases=3,Linecode=CABA08_3_3_3,Length=0.046502000,Units=km
new line.SMT_11647889 bus1=BMT7844454B.1.2.3,bus2=BMT7844461B.1.2.3,Phases=3,Linecode=CABA08_3_3_3,Length=0.029164000,Units=km
new line.SMT_11647903 bus1=BMT7844461B.1.2.3,bus2=BMT7844468B.1.2.3,Phases=3,Linecode=CABA08_3_3_3,Length=0.024029000,Units=km
new line.SMT_11647917 bus1=BMT7844468B.1.2.3,bus2=BMT7844475B.1.2.3,Phases=3,Linecode=CABA08_3_3_3,Length=0.028871000,Units=km
new line.SMT_11647931 bus1=BMT7844475B.1.2.3,bus2=BMT7844482B.1.2.3,Phases=3,Linecode=CABA08_3_3_3,Length=0.032905000,Units=km
new line.SMT_11647945 bus1=BMT7844482B.1.2.3,bus2=BMT7844853B.1.2.3,Phases=3,Linecode=CABA08_3_3_3,Length=0.046631000,Units=km
new line.SMT_11647959 bus1=BMT7844853B.1.2.3,bus2=BMT7844860B.1.2.3,Phases=3,Linecode=CABA08_3_3_3,Length=0.036686000,Units=km
new line.SMT_11647973 bus1=BMT7844860B.1.2.3,bus2=BMT7844867B.1.2.3,Phases=3,Linecode=CABA08_3_3_3,Length=0.042558000,Units=km
new line.SMT_11647980 bus1=BMT7844867B.1.2.3,bus2=BMT7844874B.1.2.3,Phases=3,Linecode=CABA08_3_3_3,Length=0.046855000,Units=km
new line.SMT_11647994 bus1=BMT7844874B.1.2.3,bus2=BMT7844881B.1.2.3,Phases=3,Linecode=CABA08_3_3_3,Length=0.051446000,Units=km
new line.SMT_11648001 bus1=BMT7844881B.1.2.3,bus2=BMT7844902B.1.2.3,Phases=3,Linecode=CABA08_3_3_3,Length=0.042464000,Units=km
new line.SMT_11648008 bus1=BMT7844902B.1.2.3,bus2=BMT7844909B.1.2.3,Phases=3,Linecode=CABA08_3_3_3,Length=0.045236000,Units=km
new line.SMT_11648029 bus1=BMT7844909B.1.2.3,bus2=BMT7844923B.1.2.3,Phases=3,Linecode=CABA08_3_3_3,Length=0.048852000,Units=km
new line.SMT_11648050 bus1=BMT7844923B.1.2.3,bus2=BMT7844930B.1.2.3,Phases=3,Linecode=CABA08_3_3_3,Length=0.046243000,Units=km
new line.SMT_11648057 bus1=BMT7844930B.1.2.3,bus2=BMT7844965B.1.2.3,Phases=3,Linecode=CABA08_3_3_3,Length=0.045358000,Units=km
new line.SMT_11648071 bus1=BMT7844965B.1.2.3,bus2=BMT7844972B.1.2.3,Phases=3,Linecode=CABA08_3_3_3,Length=0.042073000,Units=km
new line.SMT_11648078 bus1=BMT7844972B.1.2.3,bus2=BMT7844979B.1.2.3,Phases=3,Linecode=CABA08_3_3_3,Length=0.035183000,Units=km
new line.SMT_11648092 bus1=BMT7844979B.1.2.3,bus2=BMT7844986B.1.2.3,Phases=3,Linecode=CABA08_3_3_3,Length=0.039026000,Units=km
new line.SMT_11648099 bus1=BMT7844986B.1.2.3,bus2=BMT7844993B.1.2.3,Phases=3,Linecode=CABA08_3_3_3,Length=0.044736000,Units=km
new line.SMT_11648106 bus1=BMT7844993B.1.2.3,bus2=BMT7845000B.1.2.3,Phases=3,Linecode=CABA08_3_3_3,Length=0.039332000,Units=km
new line.SMT_11648127 bus1=BMT7845000B.1.2.3,bus2=BMT7845014B.1.2.3,Phases=3,Linecode=CABA08_3_3_3,Length=0.042310000,Units=km
new line.SMT_11648134 bus1=BMT7845014B.1.2.3,bus2=BMT7845028B.1.2.3,Phases=3,Linecode=CABA08_3_3_3,Length=0.041026000,Units=km
new line.SMT_11648141 bus1=BMT7845028B.1.2.3,bus2=BMT7845035B.1.2.3,Phases=3,Linecode=CABA08_3_3_3,Length=0.045059000,Units=km
new line.SMT_11648148 bus1=BMT7845035B.1.2.3,bus2=BMT7845056B.1.2.3,Phases=3,Linecode=CABA08_3_3_3,Length=0.042014000,Units=km
new line.SMT_11648155 bus1=BMT7845056B.1.2.3,bus2=BMT7845063B.1.2.3,Phases=3,Linecode=CABA08_3_3_3,Length=0.042014000,Units=km
new line.SMT_11648162 bus1=BMT7845063B.1.2.3,bus2=BMT7845070B.1.2.3,Phases=3,Linecode=CABA08_3_3_3,Length=0.040063000,Units=km
new line.SMT_11648169 bus1=BMT7845070B.1.2.3,bus2=BMT7845077B.1.2.3,Phases=3,Linecode=CABA08_3_3_3,Length=0.039472000,Units=km
new line.SMT_10304176 bus1=BMT167566065.1.2.3,bus2=BMT167566066.1.2.3,Phases=3,Linecode=CAB203_3_3_3,Length=0.060436000,Units=km
new line.SMT_10304183 bus1=BMT98867897.1.2.3,bus2=BMT6528916B.1.2.3,Phases=3,Linecode=CAB202_3_3_3,Length=0.008606000,Units=km
new line.SMT_10304246 bus1=BMT6528916B.1.2.3,bus2=BMT179929248.1.2.3,Phases=3,Linecode=CAB202_3_3_3,Length=0.036782000,Units=km
new line.SMT_10742166 bus1=BMT157300184.1.2.3,bus2=BMT986777B.1.2.3,Phases=3,Linecode=CABA06_3_3_3,Length=0.030011000,Units=km
new line.SMT_10742173 bus1=BMT986777B.1.2.3,bus2=BMT98867456.1.2.3,Phases=3,Linecode=CABA06_3_3_3,Length=0.027028000,Units=km
new line.SMT_10742180 bus1=BMT98867673.1.2.3,bus2=BMT98867680.1.2.3,Phases=3,Linecode=CAB902_4_3_3,Length=0.011185000,Units=km
new line.SMT_11386971 bus1=BMT174615684.1.2.3,bus2=BMT989619B.1.2.3,Phases=3,Linecode=CABA06_3_3_3,Length=0.035453000,Units=km
new line.SMT_11386978 bus1=BMT989619B.1.2.3,bus2=BMT989612B.1.2.3,Phases=3,Linecode=CABA06_3_3_3,Length=0.034682000,Units=km
new line.SMT_11386985 bus1=BMT989612B.1.2.3,bus2=BMT989598B.1.2.3,Phases=3,Linecode=CABA06_3_3_3,Length=0.030817000,Units=km
new line.SMT_11386992 bus1=BMT989598B.1.2.3,bus2=BMT989577B.1.2.3,Phases=3,Linecode=CABA06_3_3_3,Length=0.045623000,Units=km
new line.SMT_11386999 bus1=BMT989577B.1.2.3,bus2=BMT174615686.1.2.3,Phases=3,Linecode=CABA06_3_3_3,Length=0.043432000,Units=km
new line.SMT_11558240 bus1=BMT178011689.1.2.3,bus2=BMT7765039C.1.2.3,Phases=3,Linecode=CABA08_3_3_3,Length=0.021031000,Units=km
new line.SMT_11558254 bus1=BMT178011689.1.2.3,bus2=BMT178011690.1.2.3,Phases=3,Linecode=CABA08_3_3_3,Length=0.015562000,Units=km
new line.SMT_11558261 bus1=BMT7765039C.1.2.3,bus2=BMT7764892C.1.2.3,Phases=3,Linecode=CABA08_3_3_3,Length=0.028452000,Units=km
new line.SMT_11558324 bus1=BMT178011689.1.2.3,bus2=BMT178011691.1.2.3,Phases=3,Linecode=CABA08_3_3_3,Length=0.022811000,Units=km
new line.SMT_11558457 bus1=BMT178011693.1.2.3,bus2=BMT3447368C.1.2.3,Phases=3,Linecode=CABA08_3_3_3,Length=0.035395000,Units=km
new line.SMT_11558485 bus1=BMT3447368C.1.2.3,bus2=BMT3447375C.1.2.3,Phases=3,Linecode=CABA08_3_3_3,Length=0.049056000,Units=km
new line.SMT_11558968 bus1=BMT3447375C.1.2.3,bus2=BMT7765872C.1.2.3,Phases=3,Linecode=CABA08_3_3_3,Length=0.036136000,Units=km
new line.SMT_11559052 bus1=BMT7765872C.1.2.3,bus2=BMT7765893C.1.2.3,Phases=3,Linecode=CABA08_3_3_3,Length=0.036136000,Units=km
new line.SMT_11559101 bus1=BMT7765893C.1.2.3,bus2=BMT7765900C.1.2.3,Phases=3,Linecode=CABA08_3_3_3,Length=0.033982000,Units=km
new line.SMT_11559150 bus1=BMT2567342C.1.2.3,bus2=BMT7765907C.1.2.3,Phases=3,Linecode=CABA08_3_3_3,Length=0.035620000,Units=km
new line.SMT_11559157 bus1=BMT7765900C.1.2.3,bus2=BMT7765907C.1.2.3,Phases=3,Linecode=CABA08_3_3_3,Length=0.035817000,Units=km
new line.SMT_11694530 bus1=BMT113797973.1.2.3,bus2=BMT113804175.1.2.3,Phases=3,Linecode=CABA08_3_3_3,Length=0.046112000,Units=km
new line.SMT_11694537 bus1=BMT178011689.1.2.3,bus2=BMT178011688.1.2.3,Phases=3,Linecode=CABA08_3_3_3,Length=0.016649000,Units=km
new line.SMT_11699241 bus1=BMT124248854.3,bus2=BMT3747458B.3,Phases=1,Linecode=CABA06_3_1_1,Length=0.037669000,Units=km
new line.SMT_11699255 bus1=BMT3747458B.3,bus2=BMT3747465B.3,Phases=1,Linecode=CABA06_3_1_1,Length=0.029079000,Units=km
new line.SMT_11699262 bus1=BMT3747465B.3,bus2=BMT3747486B.3,Phases=1,Linecode=CABA06_3_1_1,Length=0.038639000,Units=km
new line.SMT_11699269 bus1=BMT3747486B.3,bus2=BMT3747493B.3,Phases=1,Linecode=CABA06_3_1_1,Length=0.034493000,Units=km
new line.SMT_11699283 bus1=BMT3747493B.3,bus2=BMT3747507B.3,Phases=1,Linecode=CABA06_3_1_1,Length=0.040324000,Units=km
new line.SMT_11699290 bus1=BMT3747507B.3,bus2=BMT7884998B.3,Phases=1,Linecode=CABA06_3_1_1,Length=0.044309000,Units=km
new line.SMT_11699297 bus1=BMT7884998B.3,bus2=BMT7885026B.3,Phases=1,Linecode=CABA06_3_1_1,Length=0.042073000,Units=km
new line.SMT_11699304 bus1=BMT7885026B.3,bus2=BMT7885047B.3,Phases=1,Linecode=CABA06_3_1_1,Length=0.043431000,Units=km
new line.SMT_11699318 bus1=BMT7885047B.3,bus2=BMT124248861.3,Phases=1,Linecode=CABA06_3_1_1,Length=0.041196000,Units=km
new line.SMT_11699332 bus1=BMT124248861.3,bus2=BMT124248875.3,Phases=1,Linecode=CABA06_3_1_1,Length=0.038483000,Units=km
new line.SMT_11699437 bus1=BMT124248861.3,bus2=BMT124248882.3,Phases=1,Linecode=CABA06_3_1_1,Length=0.040275000,Units=km
new line.SMT_11699444 bus1=BMT124248882.3,bus2=BMT7885173B.3,Phases=1,Linecode=CABA06_3_1_1,Length=0.035914000,Units=km
new line.SMT_11699451 bus1=BMT7885173B.3,bus2=BMT124248889.3,Phases=1,Linecode=CABA06_3_1_1,Length=0.033745000,Units=km
new line.SMT_11699514 bus1=BMT124248882.3,bus2=BMT7885362B.3,Phases=1,Linecode=CABA06_3_1_1,Length=0.039013000,Units=km
new line.SMT_11699556 bus1=BMT7885362B.3,bus2=BMT7885383B.3,Phases=1,Linecode=CABA06_3_1_1,Length=0.034011000,Units=km
new line.SMT_11699563 bus1=BMT7885383B.3,bus2=BMT124248903.3,Phases=1,Linecode=CABA06_3_1_1,Length=0.045137000,Units=km
new line.SMT_11699647 bus1=BMT178260927.3,bus2=BMT3746891B.3,Phases=1,Linecode=CABA06_3_1_1,Length=0.037134000,Units=km
new line.SMT_11699654 bus1=BMT3746891B.3,bus2=BMT178260928.3,Phases=1,Linecode=CABA06_3_1_1,Length=0.034246000,Units=km
new line.SMT_11699675 bus1=BMT178260928.3,bus2=BMT7885467B.3,Phases=1,Linecode=CABA06_3_1_1,Length=0.035239000,Units=km
new line.SMT_11699682 bus1=BMT7885467B.3,bus2=BMT178260929.3,Phases=1,Linecode=CABA06_3_1_1,Length=0.034143000,Units=km
new line.SMT_11635366 bus1=BMT853028B.1.2.3,bus2=BMT7834087B.1.2.3,Phases=3,Linecode=CABA08_3_3_3,Length=0.036082000,Units=km
new line.SMT_11635373 bus1=BMT7834087B.1.2.3,bus2=BMT7834094B.1.2.3,Phases=3,Linecode=CABA08_3_3_3,Length=0.036687000,Units=km
new line.SMT_11635380 bus1=BMT7834094B.1.2.3,bus2=BMT7834101B.1.2.3,Phases=3,Linecode=CABA08_3_3_3,Length=0.041607000,Units=km
new line.SMT_11635387 bus1=BMT7834101B.1.2.3,bus2=BMT7834108B.1.2.3,Phases=3,Linecode=CABA08_3_3_3,Length=0.041607000,Units=km
new line.SMT_11635443 bus1=BMT7834108B.1.2.3,bus2=BMT7834136B.1.2.3,Phases=3,Linecode=CABA08_3_3_3,Length=0.042558000,Units=km
new line.SMT_11635471 bus1=BMT7834136B.1.2.3,bus2=BMT7834150B.1.2.3,Phases=3,Linecode=CABA08_3_3_3,Length=0.042441000,Units=km
new line.SMT_11635485 bus1=BMT7834150B.1.2.3,bus2=BMT7834157B.1.2.3,Phases=3,Linecode=CABA08_3_3_3,Length=0.044162000,Units=km
new line.SMT_11635492 bus1=BMT7834157B.1.2.3,bus2=BMT7834164B.1.2.3,Phases=3,Linecode=CABA08_3_3_3,Length=0.043431000,Units=km
new line.SMT_11635499 bus1=BMT7834164B.1.2.3,bus2=BMT7834171B.1.2.3,Phases=3,Linecode=CABA08_3_3_3,Length=0.025009000,Units=km
new line.SMT_11635506 bus1=BMT7834171B.1.2.3,bus2=BMT7834178B.1.2.3,Phases=3,Linecode=CABA08_3_3_3,Length=0.024767000,Units=km
new line.SMT_11635520 bus1=BMT7834178B.1.2.3,bus2=BMT7834192B.1.2.3,Phases=3,Linecode=CABA08_3_3_3,Length=0.025088000,Units=km
new line.SMT_11635534 bus1=BMT7834192B.1.2.3,bus2=BMT180347247.1.2.3,Phases=3,Linecode=CABA08_3_3_3,Length=0.033072000,Units=km
new line.SMT_11635555 bus1=BMT180347247.2,bus2=BMT180347249.2,Phases=1,Linecode=CAB202_3_1_1,Length=0.124238000,Units=km
new line.SMT_11635562 bus1=BMT180347247.1.2.3,bus2=BMT7834248B.1.2.3,Phases=3,Linecode=CABA08_3_3_3,Length=0.041062000,Units=km
new line.SMT_11635576 bus1=BMT7834248B.1.2.3,bus2=BMT110848600.1.2.3,Phases=3,Linecode=CABA08_3_3_3,Length=0.041775000,Units=km
new line.SMT_11635583 bus1=BMT176825840.1.2.3,bus2=BMT7834283B.1.2.3,Phases=3,Linecode=CABA08_3_3_3,Length=0.041160000,Units=km
new line.SMT_11635590 bus1=BMT7834283B.1.2.3,bus2=BMT7834297B.1.2.3,Phases=3,Linecode=CABA08_3_3_3,Length=0.041451000,Units=km
new line.SMT_11635597 bus1=BMT7834297B.1.2.3,bus2=BMT7834304B.1.2.3,Phases=3,Linecode=CABA08_3_3_3,Length=0.042734000,Units=km
new line.SMT_11635604 bus1=BMT7834304B.1.2.3,bus2=BMT7834311B.1.2.3,Phases=3,Linecode=CABA08_3_3_3,Length=0.042734000,Units=km
new line.SMT_11635611 bus1=BMT7834311B.1.2.3,bus2=BMT176825833.1.2.3,Phases=3,Linecode=CABA08_3_3_3,Length=0.040830000,Units=km
new line.SMT_11635625 bus1=BMT176825833.1.2.3,bus2=BMT3345322B.1.2.3,Phases=3,Linecode=CABA08_3_3_3,Length=0.040720000,Units=km
new line.SMT_11635632 bus1=BMT3345322B.1.2.3,bus2=BMT7834332B.1.2.3,Phases=3,Linecode=CABA08_3_3_3,Length=0.042074000,Units=km
new line.SMT_11635639 bus1=BMT7834332B.1.2.3,bus2=BMT2446270B.1.2.3,Phases=3,Linecode=CABA08_3_3_3,Length=0.043188000,Units=km
new line.SMT_11635646 bus1=BMT2446270B.1.2.3,bus2=BMT176825832.1.2.3,Phases=3,Linecode=CABA08_3_3_3,Length=0.042026000,Units=km
new line.SMT_11635653 bus1=BMT176825832.1.2.3,bus2=BMT7834346B.1.2.3,Phases=3,Linecode=CABA08_3_3_3,Length=0.053168000,Units=km
new line.SMT_11635660 bus1=BMT7834346B.1.2.3,bus2=BMT7834353B.1.2.3,Phases=3,Linecode=CABA08_3_3_3,Length=0.049352000,Units=km
new line.SMT_11635793 bus1=BMT7834353B.1.2.3,bus2=BMT176825831.1.2.3,Phases=3,Linecode=CABA08_3_3_3,Length=0.042452000,Units=km
new line.SMT_11635807 bus1=BMT843613B.1.2.3,bus2=BMT7834423B.1.2.3,Phases=3,Linecode=CABA08_3_3_3,Length=0.026181000,Units=km
new line.SMT_11635814 bus1=BMT176825831.1.2.3,bus2=BMT7834423B.1.2.3,Phases=3,Linecode=CABA08_3_3_3,Length=0.025009000,Units=km
new line.SMT_11635842 bus1=BMT176825830.1.2.3,bus2=BMT7834437B.1.2.3,Phases=3,Linecode=CABA08_3_3_3,Length=0.027212000,Units=km
new line.SMT_11635849 bus1=BMT7834437B.1.2.3,bus2=BMT176825829.1.2.3,Phases=3,Linecode=CABA08_3_3_3,Length=0.025641000,Units=km
new line.SMT_11635891 bus1=BMT176825829.1.2.3,bus2=BMT7834451B.1.2.3,Phases=3,Linecode=CABA08_3_3_3,Length=0.032399000,Units=km
new line.SMT_11635898 bus1=BMT843655B.1.2.3,bus2=BMT7834451B.1.2.3,Phases=3,Linecode=CABA08_3_3_3,Length=0.028645000,Units=km
new line.SMT_11635919 bus1=BMT843655B.1.2.3,bus2=BMT7834479B.1.2.3,Phases=3,Linecode=CABA08_3_3_3,Length=0.024707000,Units=km
new line.SMT_11635926 bus1=BMT843662B.1.2.3,bus2=BMT7834479B.1.2.3,Phases=3,Linecode=CABA08_3_3_3,Length=0.024091000,Units=km
new line.SMT_11824674 bus1=BMT183022414.1.2.3,bus2=BMT911786B.1.2.3,Phases=3,Linecode=CABA08_3_3_3,Length=0.048389000,Units=km
new line.SMT_11824681 bus1=BMT911786B.1.2.3,bus2=BMT7986281B.1.2.3,Phases=3,Linecode=CABA08_3_3_3,Length=0.026879000,Units=km
new line.SMT_11824688 bus1=BMT7986281B.1.2.3,bus2=BMT911828B.1.2.3,Phases=3,Linecode=CABA08_3_3_3,Length=0.032537000,Units=km
new line.SMT_11824695 bus1=BMT911828B.1.2.3,bus2=BMT7986351B.1.2.3,Phases=3,Linecode=CABA08_3_3_3,Length=0.032259000,Units=km
new line.SMT_11824702 bus1=BMT7986351B.1.2.3,bus2=BMT7986337B.1.2.3,Phases=3,Linecode=CABA08_3_3_3,Length=0.041025000,Units=km
new line.SMT_11824709 bus1=BMT7986337B.1.2.3,bus2=BMT7986393B.1.2.3,Phases=3,Linecode=CABA08_3_3_3,Length=0.031791000,Units=km
new line.SMT_11824716 bus1=BMT7986393B.1.2.3,bus2=BMT7986372B.1.2.3,Phases=3,Linecode=CABA08_3_3_3,Length=0.031058000,Units=km
new line.SMT_11824723 bus1=BMT7986372B.1.2.3,bus2=BMT7986365B.1.2.3,Phases=3,Linecode=CABA08_3_3_3,Length=0.037133000,Units=km
new line.SMT_11648197 bus1=BMT7845077B.1.2.3,bus2=BMT7845084B.1.2.3,Phases=3,Linecode=CABA08_3_3_3,Length=0.034187000,Units=km
new line.SMT_11648232 bus1=BMT7845084B.1.2.3,bus2=BMT133132855.1.2.3,Phases=3,Linecode=CABA08_3_3_3,Length=0.039013000,Units=km
new line.SMT_11661798 bus1=BMT151177219.1.2.3,bus2=BMT7854443B.1.2.3,Phases=3,Linecode=CABA08_3_3_3,Length=0.030424000,Units=km
new line.SMT_11840620 bus1=BMT894930B.1.2.3,bus2=BMT8001030B.1.2.3,Phases=3,Linecode=CABA08_3_3_3,Length=0.026410000,Units=km
new line.SMT_11840627 bus1=BMT133832085.1.2.3,bus2=BMT8001030B.1.2.3,Phases=3,Linecode=CABA08_3_3_3,Length=0.033433000,Units=km
new line.SMT_11840662 bus1=BMT894937B.1.2.3,bus2=BMT8001219B.1.2.3,Phases=3,Linecode=CABA08_3_3_3,Length=0.027866000,Units=km
new line.SMT_11840669 bus1=BMT894944B.1.2.3,bus2=BMT8001219B.1.2.3,Phases=3,Linecode=CABA08_3_3_3,Length=0.021197000,Units=km
new line.SMT_11841005 bus1=BMT893726B.1.2.3,bus2=BMT178531767.1.2.3,Phases=3,Linecode=CABA08_3_3_3,Length=0.043580000,Units=km
new line.SMT_11841201 bus1=BMT178531770.1.2.3,bus2=BMT124299016.1.2.3,Phases=3,Linecode=CABA08_3_3_3,Length=0.020255000,Units=km
new line.SMT_11841208 bus1=BMT175451444.1.2.3,bus2=BMT175451445.1.2.3,Phases=3,Linecode=CABA08_3_3_3,Length=0.018980000,Units=km
new line.SMT_11842118 bus1=BMT175451445.1.2.3,bus2=BMT8002801B.1.2.3,Phases=3,Linecode=CABA08_3_3_3,Length=0.041450000,Units=km
new line.SMT_11842195 bus1=BMT8002801B.1.2.3,bus2=BMT8002822B.1.2.3,Phases=3,Linecode=CABA08_3_3_3,Length=0.045192000,Units=km
new line.SMT_11842202 bus1=BMT8002822B.1.2.3,bus2=BMT8002829B.1.2.3,Phases=3,Linecode=CABA08_3_3_3,Length=0.035367000,Units=km
new line.SMT_11842209 bus1=BMT8002829B.1.2.3,bus2=BMT8002843B.1.2.3,Phases=3,Linecode=CABA08_3_3_3,Length=0.032706000,Units=km
new line.SMT_11842216 bus1=BMT8002843B.1.2.3,bus2=BMT175451446.1.2.3,Phases=3,Linecode=CABA08_3_3_3,Length=0.035522000,Units=km
new line.SMT_11842223 bus1=BMT175451446.1.2.3,bus2=BMT8002864B.1.2.3,Phases=3,Linecode=CABA08_3_3_3,Length=0.039459000,Units=km
new line.SMT_11842230 bus1=BMT8002864B.1.2.3,bus2=BMT8002878B.1.2.3,Phases=3,Linecode=CABA08_3_3_3,Length=0.030027000,Units=km
new line.SMT_11842237 bus1=BMT8002878B.1.2.3,bus2=BMT8002885B.1.2.3,Phases=3,Linecode=CABA08_3_3_3,Length=0.036727000,Units=km
new line.SMT_11842286 bus1=BMT8002892B.1.2.3,bus2=BMT8002899B.1.2.3,Phases=3,Linecode=CABA08_3_3_3,Length=0.030686000,Units=km
new line.SMT_11842293 bus1=BMT8002899B.1.2.3,bus2=BMT8002906B.1.2.3,Phases=3,Linecode=CABA08_3_3_3,Length=0.039825000,Units=km
new line.SMT_11842300 bus1=BMT8002906B.1.2.3,bus2=BMT8002913B.1.2.3,Phases=3,Linecode=CABA08_3_3_3,Length=0.036247000,Units=km
new line.SMT_11842307 bus1=BMT157558687.3,bus2=BMT157558685.3,Phases=1,Linecode=CAB202_3_1_1,Length=0.025641000,Units=km
new line.SMT_11842321 bus1=BMT157558663.3,bus2=BMT157558697.3,Phases=1,Linecode=CABA06_3_1_1,Length=0.028802000,Units=km
new line.SMT_11842328 bus1=BMT157558715.3,bus2=BMT157558716.3,Phases=1,Linecode=CAB202_3_1_1,Length=0.066331000,Units=km
new line.SMT_11842377 bus1=BMT8002913B.1.2.3,bus2=BMT157558663.1.2.3,Phases=3,Linecode=CABA08_3_3_3,Length=0.037228000,Units=km
new line.SMT_11842433 bus1=BMT157558663.1.2.3,bus2=BMT8002934B.1.2.3,Phases=3,Linecode=CABA08_3_3_3,Length=0.028170000,Units=km
...
