2024_89_CemigReconfigurationCases/1_AlimsCemig/ESR15/ESR15Transformadores.dss
new transformer.TRF_100647 Phases=3,Windings=2,Buses=[BMT176864183.1.2.3 970866.1.2.3.0],Conns=[delta,wye],kvs=[13.800000000,0.220000000],kvas=[45.000000000 45.000000000],Taps=[1,1.000000000],XHL=3.700000000,%loadloss=1.520000000,%noloadloss=0.377777000 !61030
new transformer.TRF_100703A Phases=1,Windings=3,Buses=[BMT180347340.2 971384.1.0 971384.0.2],Conns=[wye wye wye],kvs=[7.967 0.12 0.12],kvas=[15.000000000 15.000000000 15.000000000],Taps=[1,1.000000000,1.000000000],XHL=1.921000000,XHT=1.921000000,XLT=1.537000000,%loadloss=1.600000000,%noloadloss=0.400000000 !48161
new transformer.TRF_101438A Phases=1,Windings=3,Buses=[BMT180347248.2 977397.1.0 977397.0.2],Conns=[wye wye wye],kvs=[7.967 0.12 0.12],kvas=[10.000000000 10.000000000 10.000000000],Taps=[1,1.000000000,1.000000000],XHL=1.735000000,XHT=1.735000000,XLT=1.388000000,%loadloss=1.800000000,%noloadloss=0.450000000 !20580
new transformer.TRF_102670A Phases=1,Windings=3,Buses=[BMT178731245.2 990172.1.0 990172.0.2],Conns=[wye wye wye],kvs=[7.967 0.12 0.12],kvas=[15.000000000 15.000000000 15.000000000],Taps=[1,1.000000000,1.000000000],XHL=1.921000000,XHT=1.921000000,XLT=1.537000000,%loadloss=1.600000000,%noloadloss=0.400000000 !8865
new transformer.TRF_103524A Phases=1,Windings=3,Buses=[BMT176864189.2 997018.1.0 997018.0.2],Conns=[wye wye wye],kvs=[7.967 0.12 0.12],kvas=[35.000000000 35.000000000 35.000000000],Taps=[1,1.000000000,1.000000000],XHL=2.139000000,XHT=2.139000000,XLT=1.712000000,%loadloss=1.293000000,%noloadloss=0.342857000 !950
new transformer.TRF_104301A Phases=1,Windings=3,Buses=[BMT161688308.2 1003024.1.0 1003024.0.2],Conns=[wye wye wye],kvs=[7.967 0.12 0.12],kvas=[10.000000000 10.000000000 10.000000000],Taps=[1,1.000000000,1.000000000],XHL=1.735000000,XHT=1.735000000,XLT=1.388000000,%loadloss=1.800000000,%noloadloss=0.450000000 !436341
new transformer.TRF_104875A Phases=1,Windings=3,Buses=[BMT161688318.2 1005775.1.0 1005775.0.2],Conns=[wye wye wye],kvs=[7.967 0.12 0.12],kvas=[5.000000000 5.000000000 5.000000000],Taps=[1,1.000000000,1.000000000],XHL=1.625000000,XHT=1.625000000,XLT=1.300000000,%loadloss=1.900000000,%noloadloss=0.600000000 !14704
new transformer.TRF_104931A Phases=1,Windings=3,Buses=[BMT161688300.2 1006202.1.0 1006202.0.2],Conns=[wye wye wye],kvs=[7.967 0.12 0.12],kvas=[5.000000000 5.000000000 5.000000000],Taps=[1,1.000000000,1.000000000],XHL=1.625000000,XHT=1.625000000,XLT=1.300000000,%loadloss=1.900000000,%noloadloss=0.600000000 !477207
new transformer.TRF_105554A Phases=1,Windings=3,Buses=[BMT161688305.2 1008372.1.0 1008372.0.2],Conns=[wye wye wye],kvs=[7.967 0.12 0.12],kvas=[10.000000000 10.000000000 10.000000000],Taps=[1,1.000000000,1.000000000],XHL=1.735000000,XHT=1.735000000,XLT=1.388000000,%loadloss=1.800000000,%noloadloss=0.450000000 !98883
new transformer.TRF_107689A Phases=1,Windings=3,Buses=[BMT137030378.3 1021819.1.0 1021819.0.2],Conns=[wye wye wye],kvs=[7.967 0.12 0.12],kvas=[5.000000000 5.000000000 5.000000000],Taps=[1,1.000000000,1.000000000],XHL=1.625000000,XHT=1.625000000,XLT=1.300000000,%loadloss=1.900000000,%noloadloss=0.600000000 !112098
new transformer.TRF_108298A Phases=1,Windings=3,Buses=[BMT137030364.3 1025571.1.0 1025571.0.2],Conns=[wye wye wye],kvs=[7.967 0.12 0.12],kvas=[10.000000000 10.000000000 10.000000000],Taps=[1,1.000000000,1.000000000],XHL=1.735000000,XHT=1.735000000,XLT=1.388000000,%loadloss=1.800000000,%noloadloss=0.450000000 !120685
new transformer.TRF_108305A Phases=1,Windings=3,Buses=[BMT102761052.3 1025606.1.0 1025606.0.2],Conns=[wye wye wye],kvs=[7.967 0.12 0.12],kvas=[15.000000000 15.000000000 15.000000000],Taps=[1,1.000000000,1.000000000],XHL=1.921000000,XHT=1.921000000,XLT=1.537000000,%loadloss=1.600000000,%noloadloss=0.400000000 !144248
new transformer.TRF_108326A Phases=1,Windings=3,Buses=[BMT174471197.3 1025648.1.0 1025648.0.2],Conns=[wye wye wye],kvs=[7.967 0.12 0.12],kvas=[15.000000000 15.000000000 15.000000000],Taps=[1,1.000000000,1.000000000],XHL=1.921000000,XHT=1.921000000,XLT=1.537000000,%loadloss=1.600000000,%noloadloss=0.400000000 !23714
new transformer.TRF_108879A Phases=1,Windings=3,Buses=[BMT180383885.2 1029120.1.0 1029120.0.2],Conns=[wye wye wye],kvs=[7.967 0.12 0.12],kvas=[10.000000000 10.000000000 10.000000000],Taps=[1,1.000000000,1.000000000],XHL=1.735000000,XHT=1.735000000,XLT=1.388000000,%loadloss=1.800000000,%noloadloss=0.450000000 !497741
new transformer.TRF_108886A Phases=1,Windings=3,Buses=[BMT113188378.3 1029176.1.0 1029176.0.2],Conns=[wye wye wye],kvs=[7.967 0.12 0.12],kvas=[15.000000000 15.000000000 15.000000000],Taps=[1,1.000000000,1.000000000],XHL=1.921000000,XHT=1.921000000,XLT=1.537000000,%loadloss=1.600000000,%noloadloss=0.400000000 !133025
new transformer.TRF_109481A Phases=1,Windings=3,Buses=[BMT151077308.2 1032858.1.0 1032858.0.2],Conns=[wye wye wye],kvs=[7.967 0.12 0.12],kvas=[35.000000000 35.000000000 35.000000000],Taps=[1,1.000000000,1.000000000],XHL=2.139000000,XHT=2.139000000,XLT=1.712000000,%loadloss=1.293000000,%noloadloss=0.342857000 !55411
new transformer.TRF_110286A Phases=1,Windings=3,Buses=[BMT174910530.3 1038206.1.0 1038206.0.2],Conns=[wye wye wye],kvs=[7.967 0.12 0.12],kvas=[25.000000000 25.000000000 25.000000000],Taps=[1,1.000000000,1.000000000],XHL=2.058000000,XHT=2.058000000,XLT=1.646000000,%loadloss=1.420000000,%noloadloss=0.320000000 !18025
new transformer.TRF_111070A Phases=1,Windings=3,Buses=[BMT174910522.2 1044072.1.0 1044072.0.2],Conns=[wye wye wye],kvs=[7.967 0.12 0.12],kvas=[35.000000000 35.000000000 35.000000000],Taps=[1,1.000000000,1.000000000],XHL=2.139000000,XHT=2.139000000,XLT=1.712000000,%loadloss=1.293000000,%noloadloss=0.342857000 !300670
new transformer.TRF_111637A Phases=1,Windings=3,Buses=[BMT151077298.1 1047845.1.0 1047845.0.2],Conns=[wye wye wye],kvs=[7.967 0.12 0.12],kvas=[35.000000000 35.000000000 35.000000000],Taps=[1,1.000000000,1.000000000],XHL=2.139000000,XHT=2.139000000,XLT=1.712000000,%loadloss=1.293000000,%noloadloss=0.342857000 !55408
new transformer.TRF_111665A Phases=1,Windings=3,Buses=[BMT176364275.3 1048125.1.0 1048125.0.2],Conns=[wye wye wye],kvs=[7.967 0.12 0.12],kvas=[35.000000000 35.000000000 35.000000000],Taps=[1,1.000000000,1.000000000],XHL=2.139000000,XHT=2.139000000,XLT=1.712000000,%loadloss=1.293000000,%noloadloss=0.342857000 !4250
new transformer.TRF_112155A Phases=1,Windings=3,Buses=[BMT151077304.2 1052283.1.0 1052283.0.2],Conns=[wye wye wye],kvs=[7.967 0.12 0.12],kvas=[35.000000000 35.000000000 35.000000000],Taps=[1,1.000000000,1.000000000],XHL=2.139000000,XHT=2.139000000,XLT=1.712000000,%loadloss=1.293000000,%noloadloss=0.342857000 !55409
new transformer.TRF_1174350 Phases=3,Windings=2,Buses=[BMT177073323.1.2.3 36919479.1.2.3.0],Conns=[delta,wye],kvs=[13.800000000,0.220000000],kvas=[30.000000000 30.000000000],Taps=[1,1.000000000],XHL=3.640000000,%loadloss=1.670000000,%noloadloss=0.433333000 !57042
new transformer.TRF_125952 Phases=3,Windings=2,Buses=[BMT165749764.1.2.3 1138334.1.2.3.0],Conns=[delta,wye],kvs=[13.800000000,0.220000000],kvas=[30.000000000 30.000000000],Taps=[1,1.000000000],XHL=3.640000000,%loadloss=1.670000000,%noloadloss=0.433333000 !60358
new transformer.TRF_125980 Phases=3,Windings=2,Buses=[BMT158496646.1.2.3 1138635.1.2.3.0],Conns=[delta,wye],kvs=[13.800000000,0.220000000],kvas=[45.000000000 45.000000000],Taps=[1,1.000000000],XHL=3.700000000,%loadloss=1.520000000,%noloadloss=0.377777000 !19949
new transformer.TRF_126022 Phases=3,Windings=2,Buses=[BMT98867799.1.2.3 1139146.1.2.3.0],Conns=[delta,wye],kvs=[13.800000000,0.220000000],kvas=[45.000000000 45.000000000],Taps=[1,1.000000000],XHL=3.700000000,%loadloss=1.520000000,%noloadloss=0.377777000 !10087
new transformer.TRF_126050 Phases=3,Windings=2,Buses=[BMT174615685.1.2.3 1139265.1.2.3.0],Conns=[delta,wye],kvs=[13.800000000,0.220000000],kvas=[45.000000000 45.000000000],Taps=[1,1.000000000],XHL=3.700000000,%loadloss=1.520000000,%noloadloss=0.377777000 !409816
new transformer.TRF_126974A Phases=1,Windings=3,Buses=[BMT169235381.3 1146258.1.0 1146258.0.2],Conns=[wye wye wye],kvs=[7.967 0.12 0.12],kvas=[10.000000000 10.000000000 10.000000000],Taps=[1,1.000000000,1.000000000],XHL=1.735000000,XHT=1.735000000,XLT=1.388000000,%loadloss=1.800000000,%noloadloss=0.450000000 !452783
new transformer.TRF_126995 Phases=3,Windings=2,Buses=[BMT180383706.1.2.3 1146384.1.2.3.0],Conns=[delta,wye],kvs=[13.800000000,0.220000000],kvas=[45.000000000 45.000000000],Taps=[1,1.000000000],XHL=3.700000000,%loadloss=1.520000000,%noloadloss=0.377777000 !11632
new transformer.TRF_127044 Phases=3,Windings=2,Buses=[BMT157300185.1.2.3 1146944.1.2.3.0],Conns=[delta,wye],kvs=[13.800000000,0.220000000],kvas=[225.000000000 225.000000000],Taps=[1,1.000000000],XHL=4.890000000,%loadloss=1.060000000,%noloadloss=0.248888000 !204
new transformer.TRF_127051 Phases=3,Windings=2,Buses=[BMT167188320.1.2.3 1147056.1.2.3.0],Conns=[delta,wye],kvs=[13.800000000,0.220000000],kvas=[30.000000000 30.000000000],Taps=[1,1.000000000],XHL=3.640000000,%loadloss=1.670000000,%noloadloss=0.433333000 !11062
new transformer.TRF_100276A Phases=1,Windings=3,Buses=[BMT180347331.2 967380.1.0 967380.0.2],Conns=[wye wye wye],kvs=[7.967 0.12 0.12],kvas=[35.000000000 35.000000000 35.000000000],Taps=[1,1.000000000,1.000000000],XHL=2.139000000,XHT=2.139000000,XLT=1.712000000,%loadloss=1.293000000,%noloadloss=0.342857000 !54774
new transformer.TRF_100332A Phases=1,Windings=3,Buses=[BMT180347335.2 967849.1.0 967849.0.2],Conns=[wye wye wye],kvs=[7.967 0.12 0.12],kvas=[10.000000000 10.000000000 10.000000000],Taps=[1,1.000000000,1.000000000],XHL=1.735000000,XHT=1.735000000,XLT=1.388000000,%loadloss=1.800000000,%noloadloss=0.450000000 !8055
new transformer.TRF_100339A Phases=1,Windings=3,Buses=[BMT161688299.2 967863.1.0 967863.0.2],Conns=[wye wye wye],kvs=[7.967 0.12 0.12],kvas=[35.000000000 35.000000000 35.000000000],Taps=[1,1.000000000,1.000000000],XHL=2.139000000,XHT=2.139000000,XLT=1.712000000,%loadloss=1.293000000,%noloadloss=0.342857000 !26389
new transformer.TRF_101186A Phases=1,Windings=3,Buses=[BMT162416278.2 975178.1.0 975178.0.2],Conns=[wye wye wye],kvs=[7.967 0.12 0.12],kvas=[10.000000000 10.000000000 10.000000000],Taps=[1,1.000000000,1.000000000],XHL=1.735000000,XHT=1.735000000,XLT=1.388000000,%loadloss=1.800000000,%noloadloss=0.450000000 !386822
new transformer.TRF_103930A Phases=1,Windings=3,Buses=[BMT150815993.2 1000056.1.0 1000056.0.2],Conns=[wye wye wye],kvs=[7.967 0.12 0.12],kvas=[10.000000000 10.000000000 10.000000000],Taps=[1,1.000000000,1.000000000],XHL=1.735000000,XHT=1.735000000,XLT=1.388000000,%loadloss=1.800000000,%noloadloss=0.450000000 !1647
new transformer.TRF_104728A Phases=1,Windings=3,Buses=[BMT176835540.2 1005222.1.0 1005222.0.2],Conns=[wye wye wye],kvs=[7.967 0.12 0.12],kvas=[15.000000000 15.000000000 15.000000000],Taps=[1,1.000000000,1.000000000],XHL=1.921000000,XHT=1.921000000,XLT=1.537000000,%loadloss=1.600000000,%noloadloss=0.400000000 !136
new transformer.TRF_105785A Phases=1,Windings=3,Buses=[BMT175451449.3 1009527.1.0 1009527.0.2],Conns=[wye wye wye],kvs=[7.967 0.12 0.12],kvas=[5.000000000 5.000000000 5.000000000],Taps=[1,1.000000000,1.000000000],XHL=1.625000000,XHT=1.625000000,XLT=1.300000000,%loadloss=1.900000000,%noloadloss=0.600000000 !2688
new transformer.TRF_105848A Phases=1,Windings=3,Buses=[BMT157558688.3 1010038.1.0 1010038.0.2],Conns=[wye wye wye],kvs=[7.967 0.12 0.12],kvas=[15.000000000 15.000000000 15.000000000],Taps=[1,1.000000000,1.000000000],XHL=1.921000000,XHT=1.921000000,XLT=1.537000000,%loadloss=1.600000000,%noloadloss=0.400000000 !91721
new transformer.TRF_108410A Phases=1,Windings=3,Buses=[BMT174910528.3 1026299.1.0 1026299.0.2],Conns=[wye wye wye],kvs=[7.967 0.12 0.12],kvas=[35.000000000 35.000000000 35.000000000],Taps=[1,1.000000000,1.000000000],XHL=2.139000000,XHT=2.139000000,XLT=1.712000000,%loadloss=1.293000000,%noloadloss=0.342857000 !316103
new transformer.TRF_108459A Phases=1,Windings=3,Buses=[BMT178531757.3 1026691.1.0 1026691.0.2],Conns=[wye wye wye],kvs=[7.967 0.12 0.12],kvas=[25.000000000 25.000000000 25.000000000],Taps=[1,1.000000000,1.000000000],XHL=2.058000000,XHT=2.058000000,XLT=1.646000000,%loadloss=1.420000000,%noloadloss=0.320000000 !13200
new transformer.TRF_111707A Phases=1,Windings=3,Buses=[BMT183022413.1 1048356.1.0 1048356.0.2],Conns=[wye wye wye],kvs=[7.967 0.12 0.12],kvas=[25.000000000 25.000000000 25.000000000],Taps=[1,1.000000000,1.000000000],XHL=2.058000000,XHT=2.058000000,XLT=1.646000000,%loadloss=1.420000000,%noloadloss=0.320000000 !4033
new transformer.TRF_111749A Phases=1,Windings=3,Buses=[BMT183022422.3 1048587.1.0 1048587.0.2],Conns=[wye wye wye],kvs=[7.967 0.12 0.12],kvas=[5.000000000 5.000000000 5.000000000],Taps=[1,1.000000000,1.000000000],XHL=1.625000000,XHT=1.625000000,XLT=1.300000000,%loadloss=1.900000000,%noloadloss=0.600000000 !35724
new transformer.TRF_111777A Phases=1,Windings=3,Buses=[BMT179639912.3 1048713.1.0 1048713.0.2],Conns=[wye wye wye],kvs=[7.967 0.12 0.12],kvas=[10.000000000 10.000000000 10.000000000],Taps=[1,1.000000000,1.000000000],XHL=1.735000000,XHT=1.735000000,XLT=1.388000000,%loadloss=1.800000000,%noloadloss=0.450000000 !461310
new transformer.TRF_111791A Phases=1,Windings=3,Buses=[BMT154523531.3 1048741.1.0 1048741.0.2],Conns=[wye wye wye],kvs=[7.967 0.12 0.12],kvas=[35.000000000 35.000000000 35.000000000],Taps=[1,1.000000000,1.000000000],XHL=2.139000000,XHT=2.139000000,XLT=1.712000000,%loadloss=1.293000000,%noloadloss=0.342857000 !25565
new transformer.TRF_112519A Phases=1,Windings=3,Buses=[BMT102761997.1 1055181.1.0 1055181.0.2],Conns=[wye wye wye],kvs=[7.967 0.12 0.12],kvas=[35.000000000 35.000000000 35.000000000],Taps=[1,1.000000000,1.000000000],XHL=2.139000000,XHT=2.139000000,XLT=1.712000000,%loadloss=1.293000000,%noloadloss=0.342857000 !25556
new transformer.TRF_112533A Phases=1,Windings=3,Buses=[BMT102761976.1 1055272.1.0 1055272.0.2],Conns=[wye wye wye],kvs=[7.967 0.12 0.12],kvas=[35.000000000 35.000000000 35.000000000],Taps=[1,1.000000000,1.000000000],XHL=2.139000000,XHT=2.139000000,XLT=1.712000000,%loadloss=1.293000000,%noloadloss=0.342857000 !25563
new transformer.TRF_112547A Phases=1,Windings=3,Buses=[BMT151077307.2 1055391.1.0 1055391.0.2],Conns=[wye wye wye],kvs=[7.967 0.12 0.12],kvas=[35.000000000 35.000000000 35.000000000],Taps=[1,1.000000000,1.000000000],XHL=2.139000000,XHT=2.139000000,XLT=1.712000000,%loadloss=1.293000000,%noloadloss=0.342857000 !294489
new transformer.TRF_112568A Phases=1,Windings=3,Buses=[BMT178640533.3 1055727.1.0 1055727.0.2],Conns=[wye wye wye],kvs=[7.967 0.12 0.12],kvas=[25.000000000 25.000000000 25.000000000],Taps=[1,1.000000000,1.000000000],XHL=2.058000000,XHT=2.058000000,XLT=1.646000000,%loadloss=1.420000000,%noloadloss=0.320000000 !13263
new transformer.TRF_112596A Phases=1,Windings=3,Buses=[BMT174475276.1 1055972.1.0 1055972.0.2],Conns=[wye wye wye],kvs=[7.967 0.12 0.12],kvas=[35.000000000 35.000000000 35.000000000],Taps=[1,1.000000000,1.000000000],XHL=2.139000000,XHT=2.139000000,XLT=1.712000000,%loadloss=1.293000000,%noloadloss=0.342857000 !29612
new transformer.TRF_112652A Phases=1,Windings=3,Buses=[BMT178002268.1 1056406.1.0 1056406.0.2],Conns=[wye wye wye],kvs=[7.967 0.12 0.12],kvas=[35.000000000 35.000000000 35.000000000],Taps=[1,1.000000000,1.000000000],XHL=2.139000000,XHT=2.139000000,XLT=1.712000000,%loadloss=1.293000000,%noloadloss=0.342857000 !301494
new transformer.TRF_124524 Phases=3,Windings=2,Buses=[BMT158496644.1.2.3 1127890.1.2.3.0],Conns=[delta,wye],kvs=[13.800000000,0.220000000],kvas=[45.000000000 45.000000000],Taps=[1,1.000000000],XHL=3.700000000,%loadloss=1.520000000,%noloadloss=0.377777000 !68787
new transformer.TRF_125539 Phases=3,Windings=2,Buses=[BMT149872523.1.2.3 1134841.1.2.3.0],Conns=[delta,wye],kvs=[13.800000000,0.220000000],kvas=[75.000000000 75.000000000],Taps=[1,1.000000000],XHL=3.770000000,%loadloss=1.340000000,%noloadloss=0.340000000 !182823
new transformer.TRF_125553 Phases=3,Windings=2,Buses=[BMT157652400.1.2.3 1135051.1.2.3.0],Conns=[delta,wye],kvs=[13.800000000,0.220000000],kvas=[45.000000000 45.000000000],Taps=[1,1.000000000],XHL=3.700000000,%loadloss=1.520000000,%noloadloss=0.377777000 !374340
new transformer.TRF_125567 Phases=3,Windings=2,Buses=[BMT166699273.1.2.3 1135184.1.2.3.0],Conns=[delta,wye],kvs=[13.800000000,0.220000000],kvas=[100.000000000 100.000000000],Taps=[1,1.000000000],XHL=3.810000000,%loadloss=1.220000000,%noloadloss=0.335000000 !30608
new transformer.TRF_125581 Phases=3,Windings=2,Buses=[BMT174615682.1.2.3 1135436.1.2.3.0],Conns=[delta,wye],kvs=[13.800000000,0.220000000],kvas=[45.000000000 45.000000000],Taps=[1,1.000000000],XHL=3.700000000,%loadloss=1.520000000,%noloadloss=0.377777000 !15811
new transformer.TRF_125588 Phases=3,Windings=2,Buses=[BMT181337034.1.2.3 1135513.1.2.3.0],Conns=[delta,wye],kvs=[13.800000000,0.220000000],kvas=[30.000000000 30.000000000],Taps=[1,1.000000000],XHL=3.640000000,%loadloss=1.670000000,%noloadloss=0.433333000 !57038
new transformer.TRF_125623 Phases=3,Windings=2,Buses=[BMT164247654.1.2.3 1135947.1.2.3.0],Conns=[delta,wye],kvs=[13.800000000,0.220000000],kvas=[100.000000000 100.000000000],Taps=[1,1.000000000],XHL=3.810000000,%loadloss=1.220000000,%noloadloss=0.335000000 !1574
new transformer.TRF_126757 Phases=3,Windings=2,Buses=[BMT149876285.1.2.3 1144893.1.2.3.0],Conns=[delta,wye],kvs=[13.800000000,0.220000000],kvas=[30.000000000 30.000000000],Taps=[1,1.000000000],XHL=3.640000000,%loadloss=1.670000000,%noloadloss=0.433333000 !159537
new transformer.TRF_127730 Phases=3,Windings=2,Buses=[BMT149863510.1.2.3 1152635.1.2.3.0],Conns=[delta,wye],kvs=[13.800000000,0.220000000],kvas=[75.000000000 75.000000000],Taps=[1,1.000000000],XHL=3.770000000,%loadloss=1.340000000,%noloadloss=0.340000000 !187642
new transformer.TRF_127744A Phases=1,Windings=3,Buses=[BMT169235450.2 1152768.1.0 1152768.0.2],Conns=[wye wye wye],kvs=[7.967 0.12 0.12],kvas=[35.000000000 35.000000000 35.000000000],Taps=[1,1.000000000,1.000000000],XHL=2.139000000,XHT=2.139000000,XLT=1.712000000,%loadloss=1.293000000,%noloadloss=0.342857000 !293242
new transformer.TRF_100164A Phases=1,Windings=3,Buses=[BMT176825829.2 966407.1.0 966407.0.2],Conns=[wye wye wye],kvs=[7.967 0.12 0.12],kvas=[35.000000000 35.000000000 35.000000000],Taps=[1,1.000000000,1.000000000],XHL=2.139000000,XHT=2.139000000,XLT=1.712000000,%loadloss=1.293000000,%noloadloss=0.342857000 !25842
new transformer.TRF_100920A Phases=1,Windings=3,Buses=[BMT178731243.2 972980.1.0 972980.0.2],Conns=[wye wye wye],kvs=[7.967 0.12 0.12],kvas=[15.000000000 15.000000000 15.000000000],Taps=[1,1.000000000,1.000000000],XHL=1.921000000,XHT=1.921000000,XLT=1.537000000,%loadloss=1.600000000,%noloadloss=0.400000000 !943
new transformer.TRF_100976A Phases=1,Windings=3,Buses=[BMT170411996.2 973351.1.0 973351.0.2],Conns=[wye wye wye],kvs=[7.967 0.12 0.12],kvas=[10.000000000 10.000000000 10.000000000],Taps=[1,1.000000000,1.000000000],XHL=1.735000000,XHT=1.735000000,XLT=1.388000000,%loadloss=1.800000000,%noloadloss=0.450000000 !12480
new transformer.TRF_103307A Phases=1,Windings=3,Buses=[BMT176825843.2 995177.1.0 995177.0.2],Conns=[wye wye wye],kvs=[7.967 0.12 0.12],kvas=[15.000000000 15.000000000 15.000000000],Taps=[1,1.000000000,1.000000000],XHL=1.921000000,XHT=1.921000000,XLT=1.537000000,%loadloss=1.600000000,%noloadloss=0.400000000 !390090
new transformer.TRF_104980A Phases=1,Windings=3,Buses=[BMT98869080.2 1006433.1.0 1006433.0.2],Conns=[wye wye wye],kvs=[7.967 0.12 0.12],kvas=[35.000000000 35.000000000 35.000000000],Taps=[1,1.000000000,1.000000000],XHL=2.139000000,XHT=2.139000000,XLT=1.712000000,%loadloss=1.293000000,%noloadloss=0.342857000 !66404
new transformer.TRF_106023A Phases=1,Windings=3,Buses=[BMT177444117.3 1011151.1.0 1011151.0.2],Conns=[wye wye wye],kvs=[7.967 0.12 0.12],kvas=[5.000000000 5.000000000 5.000000000],Taps=[1,1.000000000,1.000000000],XHL=1.625000000,XHT=1.625000000,XLT=1.300000000,%loadloss=1.900000000,%noloadloss=0.600000000 !7059
new transformer.TRF_106688A Phases=1,Windings=3,Buses=[BMT175451450.3 1015106.1.0 1015106.0.2],Conns=[wye wye wye],kvs=[7.967 0.12 0.12],kvas=[10.000000000 10.000000000 10.000000000],Taps=[1,1.000000000,1.000000000],XHL=1.735000000,XHT=1.735000000,XLT=1.388000000,%loadloss=1.800000000,%noloadloss=0.450000000 !118606
new transformer.TRF_108193A Phases=1,Windings=3,Buses=[BMT175451456.3 1025158.1.0 1025158.0.2],Conns=[wye wye wye],kvs=[7.967 0.12 0.12],kvas=[15.000000000 15.000000000 15.000000000],Taps=[1,1.000000000,1.000000000],XHL=1.921000000,XHT=1.921000000,XLT=1.537000000,%loadloss=1.600000000,%noloadloss=0.400000000 !795321
new transformer.TRF_108221A Phases=1,Windings=3,Buses=[BMT177444116.3 1025354.1.0 1025354.0.2],Conns=[wye wye wye],kvs=[7.967 0.12 0.12],kvas=[5.000000000 5.000000000 5.000000000],Taps=[1,1.000000000,1.000000000],XHL=1.625000000,XHT=1.625000000,XLT=1.300000000,%loadloss=1.900000000,%noloadloss=0.600000000 !7105
new transformer.TRF_108235A Phases=1,Windings=3,Buses=[BMT175451458.3 1025382.1.0 1025382.0.2],Conns=[wye wye wye],kvs=[7.967 0.12 0.12],kvas=[15.000000000 15.000000000 15.000000000],Taps=[1,1.000000000,1.000000000],XHL=1.921000000,XHT=1.921000000,XLT=1.537000000,%loadloss=1.600000000,%noloadloss=0.400000000 !23598
new transformer.TRF_108263A Phases=1,Windings=3,Buses=[BMT178531771.3 1025438.1.0 1025438.0.2],Conns=[wye wye wye],kvs=[7.967 0.12 0.12],kvas=[5.000000000 5.000000000 5.000000000],Taps=[1,1.000000000,1.000000000],XHL=1.625000000,XHT=1.625000000,XLT=1.300000000,%loadloss=1.900000000,%noloadloss=0.600000000 !2748
new transformer.TRF_110391 Phases=3,Windings=2,Buses=[BMT151077302.1.2.3 1038920.1.2.3.0],Conns=[delta,wye],kvs=[13.800000000,0.220000000],kvas=[45.000000000 45.000000000],Taps=[1,1.000000000],XHL=3.700000000,%loadloss=1.520000000,%noloadloss=0.377777000 !69118
new transformer.TRF_111077A Phases=1,Windings=3,Buses=[BMT174910407.1 1044142.1.0 1044142.0.2],Conns=[wye wye wye],kvs=[7.967 0.12 0.12],kvas=[35.000000000 35.000000000 35.000000000],Taps=[1,1.000000000,1.000000000],XHL=2.139000000,XHT=2.139000000,XLT=1.712000000,%loadloss=1.293000000,%noloadloss=0.342857000 !4261
new transformer.TRF_111812A Phases=1,Windings=3,Buses=[BMT154523532.3 1049070.1.0 1049070.0.2],Conns=[wye wye wye],kvs=[7.967 0.12 0.12],kvas=[35.000000000 35.000000000 35.000000000],Taps=[1,1.000000000,1.000000000],XHL=2.139000000,XHT=2.139000000,XLT=1.712000000,%loadloss=1.293000000,%noloadloss=0.342857000 !25569
new transformer.TRF_111861A Phases=1,Windings=3,Buses=[BMT174475275.1 1049602.1.0 1049602.0.2],Conns=[wye wye wye],kvs=[7.967 0.12 0.12],kvas=[35.000000000 35.000000000 35.000000000],Taps=[1,1.000000000,1.000000000],XHL=2.139000000,XHT=2.139000000,XLT=1.712000000,%loadloss=1.293000000,%noloadloss=0.342857000 !29611
new transformer.TRF_112694A Phases=1,Windings=3,Buses=[BMT178640531.3 1056763.1.0 1056763.0.2],Conns=[wye wye wye],kvs=[7.967 0.12 0.12],kvas=[35.000000000 35.000000000 35.000000000],Taps=[1,1.000000000,1.000000000],XHL=2.139000000,XHT=2.139000000,XLT=1.712000000,%loadloss=1.293000000,%noloadloss=0.342857000 !4260
new transformer.TRF_112750A Phases=1,Windings=3,Buses=[BMT151177222.2 1057127.1.0 1057127.0.2],Conns=[wye wye wye],kvs=[7.967 0.12 0.12],kvas=[15.000000000 15.000000000 15.000000000],Taps=[1,1.000000000,1.000000000],XHL=1.921000000,XHT=1.921000000,XLT=1.537000000,%loadloss=1.600000000,%noloadloss=0.400000000 !124609
new transformer.TRF_112799A Phases=1,Windings=3,Buses=[BMT178640532.3 1057477.1.0 1057477.0.2],Conns=[wye wye wye],kvs=[7.967 0.12 0.12],kvas=[35.000000000 35.000000000 35.000000000],Taps=[1,1.000000000,1.000000000],XHL=2.139000000,XHT=2.139000000,XLT=1.712000000,%loadloss=1.293000000,%noloadloss=0.342857000 !313542
new transformer.TRF_114024A Phases=1,Windings=3,Buses=[BMT179639917.3 1065961.1.0 1065961.0.2],Conns=[wye wye wye],kvs=[7.967 0.12 0.12],kvas=[35.000000000 35.000000000 35.000000000],Taps=[1,1.000000000,1.000000000],XHL=2.139000000,XHT=2.139000000,XLT=1.712000000,%loadloss=1.293000000,%noloadloss=0.342857000 !291600
new transformer.TRF_125812 Phases=3,Windings=2,Buses=[BMT98867092.1.2.3 1137228.1.2.3.0],Conns=[delta,wye],kvs=[13.800000000,0.220000000],kvas=[150.000000000 150.000000000],Taps=[1,1.000000000],XHL=3.840000000,%loadloss=1.130000000,%noloadloss=0.000000000 !15534
new transformer.TRF_125840 Phases=3,Windings=2,Buses=[BMT167188323.1.2.3 1137361.1.2.3.0],Conns=[delta,wye],kvs=[13.800000000,0.220000000],kvas=[75.000000000 75.000000000],Taps=[1,1.000000000],XHL=3.770000000,%loadloss=1.340000000,%noloadloss=0.340000000 !144354
new transformer.TRF_125854 Phases=3,Windings=2,Buses=[BMT181337039.1.2.3 1137550.1.2.3.0],Conns=[delta,wye],kvs=[13.800000000,0.220000000],kvas=[30.000000000 30.000000000],Taps=[1,1.000000000],XHL=3.640000000,%loadloss=1.670000000,%noloadloss=0.433333000 !56936
new transformer.TRF_125903 Phases=3,Windings=2,Buses=[BMT158496704.1.2.3 1137823.1.2.3.0],Conns=[delta,wye],kvs=[13.800000000,0.220000000],kvas=[15.000000000 15.000000000],Taps=[1,1.000000000],XHL=3.480000000,%loadloss=1.970000000,%noloadloss=0.500000000 !2164
new transformer.TRF_125910 Phases=3,Windings=2,Buses=[BMT158496650.1.2.3 1137956.1.2.3.0],Conns=[delta,wye],kvs=[13.800000000,0.220000000],kvas=[45.000000000 45.000000000],Taps=[1,1.000000000],XHL=3.700000000,%loadloss=1.520000000,%noloadloss=0.377777000 !21326
new transformer.TRF_125931 Phases=3,Windings=2,Buses=[BMT158496705.1.2.3 1138194.1.2.3.0],Conns=[delta,wye],kvs=[13.800000000,0.220000000],kvas=[45.000000000 45.000000000],Taps=[1,1.000000000],XHL=3.700000000,%loadloss=1.520000000,%noloadloss=0.377777000 !9558
new transformer.TRF_127387 Phases=3,Windings=2,Buses=[BMT149869906.1.2.3 1149527.1.2.3.0],Conns=[delta,wye],kvs=[13.800000000,0.220000000],kvas=[75.000000000 75.000000000],Taps=[1,1.000000000],XHL=3.770000000,%loadloss=1.340000000,%noloadloss=0.340000000 !11506
new transformer.TRF_127429 Phases=3,Windings=2,Buses=[BMT98867813.1.2.3 1150031.1.2.3.0],Conns=[delta,wye],kvs=[13.800000000,0.220000000],kvas=[75.000000000 75.000000000],Taps=[1,1.000000000],XHL=3.770000000,%loadloss=1.340000000,%noloadloss=0.340000000 !31863
new transformer.TRF_127457A Phases=1,Windings=3,Buses=[BMT167188319.1 1150346.1.0 1150346.0.2],Conns=[wye wye wye],kvs=[7.967 0.12 0.12],kvas=[5.000000000 5.000000000 5.000000000],Taps=[1,1.000000000,1.000000000],XHL=1.625000000,XHT=1.625000000,XLT=1.300000000,%loadloss=1.900000000,%noloadloss=0.600000000 !3821
new transformer.TRF_127485 Phases=3,Windings=2,Buses=[BMT149871706.1.2.3 1150535.1.2.3.0],Conns=[delta,wye],kvs=[13.800000000,0.220000000],kvas=[75.000000000 75.000000000],Taps=[1,1.000000000],XHL=3.770000000,%loadloss=1.340000000,%noloadloss=0.340000000 !26912
new transformer.TRF_127513 Phases=3,Windings=2,Buses=[BMT149871702.1.2.3 1150836.1.2.3.0],Conns=[delta,wye],kvs=[13.800000000,0.220000000],kvas=[75.000000000 75.000000000],Taps=[1,1.000000000],XHL=3.770000000,%loadloss=1.340000000,%noloadloss=0.340000000 !16151
new transformer.TRF_101543A Phases=1,Windings=3,Buses=[BMT170411995.2 978531.1.0 978531.0.2],Conns=[wye wye wye],kvs=[7.967 0.12 0.12],kvas=[15.000000000 15.000000000 15.000000000],Taps=[1,1.000000000,1.000000000],XHL=1.921000000,XHT=1.921000000,XLT=1.537000000,%loadloss=1.600000000,%noloadloss=0.400000000 !57571
new transformer.TRF_104812A Phases=1,Windings=3,Buses=[BMT176825842.2 1005530.1.0 1005530.0.2],Conns=[wye wye wye],kvs=[7.967 0.12 0.12],kvas=[10.000000000 10.000000000 10.000000000],Taps=[1,1.000000000,1.000000000],XHL=1.735000000,XHT=1.735000000,XLT=1.388000000,%loadloss=1.800000000,%noloadloss=0.450000000 !198820
new transformer.TRF_105442A Phases=1,Windings=3,Buses=[BMT176835544.2 1008099.1.0 1008099.0.2],Conns=[wye wye wye],kvs=[7.967 0.12 0.12],kvas=[15.000000000 15.000000000 15.000000000],Taps=[1,1.000000000,1.000000000],XHL=1.921000000,XHT=1.921000000,XLT=1.537000000,%loadloss=1.600000000,%noloadloss=0.400000000 !16237
new transformer.TRF_106128A Phases=1,Windings=3,Buses=[BMT161688325.2 1011823.1.0 1011823.0.2],Conns=[wye wye wye],kvs=[7.967 0.12 0.12],kvas=[10.000000000 10.000000000 10.000000000],Taps=[1,1.000000000,1.000000000],XHL=1.735000000,XHT=1.735000000,XLT=1.388000000,%loadloss=1.800000000,%noloadloss=0.450000000 !139339
new transformer.TRF_106751A Phases=1,Windings=3,Buses=[BMT175451453.3 1015351.1.0 1015351.0.2],Conns=[wye wye wye],kvs=[7.967 0.12 0.12],kvas=[10.000000000 10.000000000 10.000000000],Taps=[1,1.000000000,1.000000000],XHL=1.735000000,XHT=1.735000000,XLT=1.388000000,%loadloss=1.800000000,%noloadloss=0.450000000 !15850
new transformer.TRF_106772A Phases=1,Windings=3,Buses=[BMT177444115.3 1015428.1.0 1015428.0.2],Conns=[wye wye wye],kvs=[7.967 0.12 0.12],kvas=[5.000000000 5.000000000 5.000000000],Taps=[1,1.000000000,1.000000000],XHL=1.625000000,XHT=1.625000000,XLT=1.300000000,%loadloss=1.900000000,%noloadloss=0.600000000 !7099
new transformer.TRF_108746A Phases=1,Windings=3,Buses=[BMT178531764.3 1028399.1.0 1028399.0.2],Conns=[wye wye wye],kvs=[7.967 0.12 0.12],kvas=[35.000000000 35.000000000 35.000000000],Taps=[1,1.000000000,1.000000000],XHL=2.139000000,XHT=2.139000000,XLT=1.712000000,%loadloss=1.293000000,%noloadloss=0.342857000 !57912
new transformer.TRF_108795A Phases=1,Windings=3,Buses=[BMT180383884.2 1028700.1.0 1028700.0.2],Conns=[wye wye wye],kvs=[7.967 0.12 0.12],kvas=[15.000000000 15.000000000 15.000000000],Taps=[1,1.000000000,1.000000000],XHL=1.921000000,XHT=1.921000000,XLT=1.537000000,%loadloss=1.600000000,%noloadloss=0.400000000 !393043
new transformer.TRF_110783A Phases=1,Windings=3,Buses=[BMT151077294.1 1042091.1.0 1042091.0.2],Conns=[wye wye wye],kvs=[7.967 0.12 0.12],kvas=[35.000000000 35.000000000 35.000000000],Taps=[1,1.000000000,1.000000000],XHL=2.139000000,XHT=2.139000000,XLT=1.712000000,%loadloss=1.293000000,%noloadloss=0.342857000 !929230
new transformer.TRF_111413A Phases=1,Windings=3,Buses=[BMT174910410.1 1046235.1.0 1046235.0.2],Conns=[wye wye wye],kvs=[7.967 0.12 0.12],kvas=[35.000000000 35.000000000 35.000000000],Taps=[1,1.000000000,1.000000000],XHL=2.139000000,XHT=2.139000000,XLT=1.712000000,%loadloss=1.293000000,%noloadloss=0.342857000 !4198
new transformer.TRF_1114150A Phases=1,Windings=3,Buses=[BMT180383746.3 25947630.1.0 25947630.0.2],Conns=[wye wye wye],kvs=[7.967 0.12 0.12],kvas=[5.000000000 5.000000000 5.000000000],Taps=[1,1.000000000,1.000000000],XHL=1.625000000,XHT=1.625000000,XLT=1.300000000,%loadloss=1.900000000,%noloadloss=0.600000000 !387253
new transformer.TRF_112267A Phases=1,Windings=3,Buses=[BMT174475273.1 1053109.1.0 1053109.0.2],Conns=[wye wye wye],kvs=[7.967 0.12 0.12],kvas=[35.000000000 35.000000000 35.000000000],Taps=[1,1.000000000,1.000000000],XHL=2.139000000,XHT=2.139000000,XLT=1.712000000,%loadloss=1.293000000,%noloadloss=0.342857000 !29613
new transformer.TRF_112295 Phases=3,Windings=2,Buses=[BMT151177224.1.2.3 1053403.1.2.3.0],Conns=[delta,wye],kvs=[13.800000000,0.220000000],kvas=[30.000000000 30.000000000],Taps=[1,1.000000000],XHL=3.640000000,%loadloss=1.670000000,%noloadloss=0.433333000 !76768
new transformer.TRF_113429A Phases=1,Windings=3,Buses=[BMT102762074.1 1062251.1.0 1062251.0.2],Conns=[wye wye wye],kvs=[7.967 0.12 0.12],kvas=[25.000000000 25.000000000 25.000000000],Taps=[1,1.000000000,1.000000000],XHL=2.058000000,XHT=2.058000000,XLT=1.646000000,%loadloss=1.420000000,%noloadloss=0.320000000 !68937
...